/*--------------------------------*- C++ -*----------------------------------*\
| =========                 |                                                 |
| \\      /  F ield         | OpenFOAM: The Open Source CFD Toolbox           |
|  \\    /   O peration     | Version:  2.3.x                                 |
|   \\  /    A nd           | Web:      www.OpenFOAM.org                      |
|    \\/     M anipulation  |                                                 |
\*---------------------------------------------------------------------------*/
FoamFile
{
    version     2.0;
    format      ascii;
    class       dictionary;
    location    "constant";
    object      RASProperties;
}
// * * * * * * * * * * * * * * * * * * * * * * * * * * * * * * * * * * * * * //

RASModel                        gammaReThetatSST;
gammaReThetatSSTCorrelations    LangtryMenter2009;  // Allowed correlations:
                                                    //  - LangtryMenter2009
                                                    //  - SuluksnaEtAl2009
                                                    //  - MalanEtAl2009
                                                    //  - Sorensen2009

turbulence                      on;

printCoeffs                     on;

gammaReThetatSSTCoeffs
{
    dUds                        off;                // Switch for activating
                                                    // the influence of
                                                    // streamwise pressure
                                                    // gradient. Some authors
                                                    // (e.g. Suluksna et al.)
                                                    // suggest switching this
                                                    // influence off by
                                                    // default.

    kInf                        0.0;                // freestream values for
    omegaInf                    0.0;                // controlling the decay
                                                    // of the turbulent
                                                    // quantities in the free-
                                                    // stream. If both are 0,
                                                    // freestream decay control
                                                    // is inactive.
}

// ************************************************************************* //
